Circuit: * C:\Users\Rahul Swar\OneDrive\Desktop\Spice Stuff\Blood_modelling.asc

.OP point found by inspection.

Date: Thu May 11 13:14:06 2023
Total elapsed time: 0.075 seconds.

tnom = 27
temp = 27
method = modified trap
totiter = 2088
traniter = 2088
tranpoints = 1045
accept = 1045
rejected = 0
matrix size = 3
fillins = 0
solver = Normal
Matrix Compiler1: off  [0.0]/0.1/0.1
Matrix Compiler2: off  [0.1]/0.1/0.1

