Circuit: * C:\Users\Rahul Swar\OneDrive\Desktop\Spice Stuff\Erythrocyte-2.asc

.OP point found by inspection.

Date: Wed May 17 22:11:27 2023
Total elapsed time: 0.030 seconds.

tnom = 27
temp = 27
method = modified trap
totiter = 2086
traniter = 2086
tranpoints = 1044
accept = 1044
rejected = 0
matrix size = 3
fillins = 0
solver = Normal
Matrix Compiler1: 50 bytes object code size  0.0/0.0/[0.0]
Matrix Compiler2: 175 bytes object code size  0.0/0.0/[0.0]

