Circuit: * C:\Users\Rahul Swar\OneDrive\Desktop\Spice Stuff\Leukocyte-1.asc

.OP point found by inspection.

Date: Wed May 17 22:12:55 2023
Total elapsed time: 0.040 seconds.

tnom = 27
temp = 27
method = modified trap
totiter = 2088
traniter = 2088
tranpoints = 1045
accept = 1045
rejected = 0
matrix size = 3
fillins = 0
solver = Normal
Matrix Compiler1:       3 opcodes  0.0/[0.0]/0.0
Matrix Compiler2: 175 bytes object code size  0.0/0.0/[0.0]

