Circuit: * C:\Users\Rahul Swar\OneDrive\Desktop\Spice Stuff\Plasma-1.asc

.OP point found by inspection.

Date: Wed May 17 22:14:43 2023
Total elapsed time: 0.036 seconds.

tnom = 27
temp = 27
method = modified trap
totiter = 2088
traniter = 2088
tranpoints = 1045
accept = 1045
rejected = 0
matrix size = 3
fillins = 0
solver = Normal
Matrix Compiler1: 50 bytes object code size  0.0/0.0/[0.0]
Matrix Compiler2:      15 opcodes  0.0/[0.0]/0.0

